Circuit: * C:\Users\aidan\Desktop\Projects\Microphone\Controlled\simulation\ac_response.asc

Direct Newton iteration for .op point succeeded.

Date: Sun Oct 23 14:04:01 2022
Total elapsed time: 0.067 seconds.

tnom = 27
temp = 27
method = trap
totiter = 5
traniter = 0
tranpoints = 0
accept = 0
rejected = 0
matrix size = 131
fillins = 137
solver = Normal
Matrix Compiler1:     823 opcodes
Matrix Compiler2: 13.28 KB object code size
